pcf
* control data
restart estimation
12 96 3  0 1
2 1 double point 1 0 0
5 2 0.3 0.01 8
5 5 0.001
0.1
20 0.005 4 4 0.01 4
1 1 1
* parameter groups
model relative 1 1 always_2 1 parabolic
soil relative 0.001 0.0001 always_2 1 parabolic
water relative 0.001 0.0001 always_2 1 parabolic
* parameter data
bins  fixed factor 100 1 50 model 1 0 1
thetar fixed relative   0.000001  0.01 0.02 soil 1 0 1
thetas fixed relative   0.4300000      0.4 0.5 soil 1 0 1
alpha none relative    2.120700      1 10 soil 1 0 1
n none relative    3.80000      1.1 20 soil 1 0 1
ksat log factor   6.1000000E-05  1e-7 1e-3 soil 1 0 1
l fixed relative   0.5000000      0.45 0.55 soil 1 0 1
ihead fixed relative   129.00000      50 250 water 1 0 1
start fixed relative    300.0000      120 360 water 1 0 1
inten fixed relative    4.000000      1 15 water 1 0 1
durat fixed relative    60.00000      30 240 water 1 0 1
pulse fixed relative    31.00000      10 40 water 1 0 1
* observation groups
tensio
* observation data
ten1 -1.2990815155 1 tensio
ten2 -1.29104477612 1 tensio
ten3 -1.2990815155 1 tensio
ten4 -1.28932261768 1 tensio
ten5 -1.30137772675 1 tensio
ten6 -1.30252583238 1 tensio
ten7 -1.30424799082 1 tensio
ten8 -1.29965556831 1 tensio
ten9 -1.29850746269 1 tensio
ten10 -1.28874856487 1 tensio
ten11 -1.29047072331 1 tensio
ten12 -1.29965556831 1 tensio
ten13 -1.29506314581 1 tensio
ten14 -1.30539609644 1 tensio
ten15 -1.30711825488 1 tensio
ten16 -1.30195177956 1 tensio
ten17 -1.29563719862 1 tensio
ten18 -1.29219288175 1 tensio
ten19 -1.26750861079 1 tensio
ten20 -1.22904707233 1 tensio
ten21 -1.16819747417 1 tensio
ten22 -1.08840413318 1 tensio
ten23 -1.00918484501 1 tensio
ten24 -0.92766934558 1 tensio
ten25 -0.858208955224 1 tensio
ten26 -0.805396096441 1 tensio
ten27 -0.774397244546 1 tensio
ten28 -0.771526980482 1 tensio
ten29 -0.785878300804 1 tensio
ten30 -0.803099885189 1 tensio
ten31 -0.819747416762 1 tensio
ten32 -0.830654420207 1 tensio
ten33 -0.845579793341 1 tensio
ten34 -0.859931113662 1 tensio
ten35 -0.872560275545 1 tensio
ten36 -0.884041331803 1 tensio
ten37 -0.897818599311 1 tensio
ten38 -0.909873708381 1 tensio
ten39 -0.923076923077 1 tensio
ten40 -0.932261768083 1 tensio
ten41 -0.944316877153 1 tensio
ten42 -0.956946039036 1 tensio
ten43 -0.966704936854 1 tensio
ten44 -0.97588978186 1 tensio
ten45 -0.985074626866 1 tensio
ten46 -0.99598163031 1 tensio
ten47 -1.00114810563 1 tensio
ten48 -1.00688863375 1 tensio
ten49 -1.01607347876 1 tensio
ten50 -1.01951779564 1 tensio
ten51 -1.02870264064 1 tensio
ten52 -1.03501722158 1 tensio
ten53 -1.04592422503 1 tensio
ten54 -1.05166475316 1 tensio
ten55 -1.04822043628 1 tensio
ten56 -1.06084959816 1 tensio
ten57 -1.06544202067 1 tensio
ten58 -1.0671641791 1 tensio
ten59 -1.0757749713 1 tensio
ten60 -1.08094144661 1 tensio
ten61 -1.09471871412 1 tensio
ten62 -1.09471871412 1 tensio
ten63 -1.08955223881 1 tensio
ten64 -1.09644087256 1 tensio
ten65 -1.0935706085 1 tensio
ten66 -1.10103329506 1 tensio
ten67 -1.10562571757 1 tensio
ten68 -1.11194029851 1 tensio
ten69 -1.12227324914 1 tensio
ten70 -1.12743972445 1 tensio
ten71 -1.13030998852 1 tensio
ten72 -1.1251435132 1 tensio
ten73 -1.1337543054 1 tensio
ten74 -1.12743972445 1 tensio
ten75 -1.12629161883 1 tensio
ten76 -1.13088404133 1 tensio
ten77 -1.13145809414 1 tensio
ten78 -1.1337543054 1 tensio
ten79 -1.1383467279 1 tensio
ten80 -1.1429391504 1 tensio
ten81 -1.14580941447 1 tensio
ten82 -1.14982778416 1 tensio
ten83 -1.15212399541 1 tensio
ten84 -1.15671641791 1 tensio
ten85 -1.1607347876 1 tensio
ten86 -1.15327210103 1 tensio
ten87 -1.14982778416 1 tensio
ten88 -1.16245694604 1 tensio
ten89 -1.18599311137 1 tensio
ten90 -1.18656716418 1 tensio
ten91 -1.17278989667 1 tensio
ten92 -1.16016073479 1 tensio
ten93 -1.15499425947 1 tensio
ten94 -1.15499425947 1 tensio
ten95 -1.14810562572 1 tensio
ten96 -1.14925373134 1 tensio
* model command line
./run_model.sh
* model input/output
TO.IN.ptf TO.IN
pre_TO.IN.ptf pre_TO.IN
obsnode.pif alf_obsnode_60.txt
