pcf
* control data
restart estimation
11 96 2 0 1
2 1 double point 1 0 0
5 2 0.3 0.01 8
5 5 0.001
0.1
20 0.005 4 4 0.01 4
1 1 1 
* parameter groups
soil relative 0.001 0.0001 always_2 1 parabolic
water relative 0.001 0.0001 always_2 1 parabolic
* parameter data
THETAR fixed relative 0.05 0.04 0.06 soil 1 0 1
THETAS fixed relative 0.43 0.4 0.5 soil 1 0 1
ALPHA none relative 3.5 1 5 soil 1 0 1
N none relative 1.4 1.1 4 soil 1 0 1
KSAT log factor 1e-5 1e-7 1e-1 soil 1 0 1
L fixed relative 0.5 0.45 0.55 soil 1 0 1
IHEAD log factor 145 130 160  water 1 0 1
START fixed relative 300 120 360 water 1 0 1
INTEN fixed relative 4 1 15 water 1 0 1
DURAT fixed relative 60 30 240 water 1 0 1
PULSE fixed relative 31 10 20 water 1 0 1
* observation groups
tensio
* observation data
ten1 -1.15040183697 1 tensio
ten2 -1.14982778416 1 tensio
ten3 -1.13777267509 1 tensio
ten4 -1.14351320321 1 tensio
ten5 -1.14236509759 1 tensio
ten6 -1.14580941447 1 tensio
ten7 -1.15097588978 1 tensio
ten8 -1.15384615385 1 tensio
ten9 -1.15040183697 1 tensio
ten10 -1.1475315729 1 tensio
ten11 -1.15901262916 1 tensio
ten12 -1.16934557979 1 tensio
ten13 -1.16245694604 1 tensio
ten14 -1.14810562572 1 tensio
ten15 -1.10218140069 1 tensio
ten16 -1.03903559127 1 tensio
ten17 -0.96785304248 1 tensio
ten18 -0.897244546498 1 tensio
ten19 -0.848450057405 1 tensio
ten20 -0.808266360505 1 tensio
ten21 -0.787600459242 1 tensio
ten22 -0.781859931114 1 tensio
ten23 -0.771526980482 1 tensio
ten24 -0.772675086108 1 tensio
ten25 -0.783582089552 1 tensio
ten26 -0.800803673938 1 tensio
ten27 -0.818599311137 1 tensio
ten28 -0.828932261768 1 tensio
ten29 -0.845579793341 1 tensio
ten30 -0.865671641791 1 tensio
ten31 -0.880022962113 1 tensio
ten32 -0.896096440873 1 tensio
ten33 -0.908151549943 1 tensio
ten34 -0.917910447761 1 tensio
ten35 -0.929391504018 1 tensio
ten36 -0.938002296211 1 tensio
ten37 -0.948909299656 1 tensio
ten38 -0.959242250287 1 tensio
ten39 -0.968427095293 1 tensio
ten40 -0.97588978186 1 tensio
ten41 -0.986796785304 1 tensio
ten42 -0.993685419059 1 tensio
ten43 -1.00344431688 1 tensio
ten44 -1.00803673938 1 tensio
ten45 -1.01836969001 1 tensio
ten46 -1.02296211251 1 tensio
ten47 -1.03329506315 1 tensio
ten48 -1.0355912744 1 tensio
ten49 -1.04592422503 1 tensio
ten50 -1.04936854191 1 tensio
ten51 -1.05510907003 1 tensio
ten52 -1.05855338691 1 tensio
ten53 -1.06429391504 1 tensio
ten54 -1.07118254879 1 tensio
ten55 -1.07520091848 1 tensio
ten56 -1.08094144661 1 tensio
ten57 -1.08610792193 1 tensio
ten58 -1.08610792193 1 tensio
ten59 -1.08897818599 1 tensio
ten60 -1.09184845006 1 tensio
ten61 -1.0935706085 1 tensio
ten62 -1.09644087256 1 tensio
ten63 -1.09988518944 1 tensio
ten64 -1.10218140069 1 tensio
ten65 -1.10562571757 1 tensio
ten66 -1.10849598163 1 tensio
ten67 -1.11194029851 1 tensio
ten68 -1.11366245695 1 tensio
ten69 -1.11653272101 1 tensio
ten70 -1.1205510907 1 tensio
ten71 -1.1205510907 1 tensio
ten72 -1.12399540758 1 tensio
ten73 -1.12686567164 1 tensio
ten74 -1.13030998852 1 tensio
ten75 -1.13203214696 1 tensio
ten76 -1.13490241102 1 tensio
ten77 -1.13719862227 1 tensio
ten78 -1.13892078071 1 tensio
ten79 -1.14064293915 1 tensio
ten80 -1.14351320321 1 tensio
ten81 -1.14638346728 1 tensio
ten82 -1.14638346728 1 tensio
ten83 -1.15040183697 1 tensio
ten84 -1.15154994259 1 tensio
ten85 -1.15269804822 1 tensio
ten86 -1.15499425947 1 tensio
ten87 -1.1561423651 1 tensio
ten88 -1.15958668197 1 tensio
ten89 -1.1607347876 1 tensio
ten90 -1.15901262916 1 tensio
ten91 -1.16303099885 1 tensio
ten92 -1.16417910448 1 tensio
ten93 -1.1607347876 1 tensio
ten94 -1.17164179104 1 tensio
ten95 -1.16130884041 1 tensio
ten96 -1.16130884041 1 tensio
* model command line
./run_model.sh
* model input/output
TO.IN.ptf TO.IN
pre_TO.IN.ptf pre_TO.IN
obsnode.pif alf_obsnode_60.txt
