pcf
* control data
restart estimation
8 96 3  0 1
2 1 double point 1 0 0
5 2 0.3 0.01 8
5 5 0.001
0.1
20 0.005 4 4 0.01 4
1 1 1
* parameter groups
model relative 1 1 always_2 1 parabolic
soil relative 0.01 0.001 always_2 1 parabolic
water relative 0.01 0.001 always_2 1 parabolic
* parameter data
bins fixed factor  50  10 1000 model 1 0 1
thetar fixed relative   0.000001  0.01 0.02 soil 1 0 1
thetas none relative   0.4300000      0.4 0.5 soil 1 0 1
alpha none factor    2.120700      1 10 soil 1 0 1
n none factor    3.80000      1.1 10 soil 1 0 1
ksat log factor   6.1000000E-04  1e-8 1e-3 soil 1 0 1
l fixed relative   0.5000000      0.45 0.55 soil 1 0 1
ihead fixed relative   126.707807118      50 250 water 1 0 1
* observation groups
tensio
* observation data
ten1 -1.27382319173 1 tensio
ten2 -1.26463834673 1 tensio
ten3 -1.27095292767 1 tensio
ten4 -1.26176808266 1 tensio
ten5 -1.27095292767 1 tensio
ten6 -1.27324913892 1 tensio
ten7 -1.27554535017 1 tensio
ten8 -1.27095292767 1 tensio
ten9 -1.2721010333 1 tensio
ten10 -1.26061997704 1 tensio
ten11 -1.26693455798 1 tensio
ten12 -1.27554535017 1 tensio
ten13 -1.26463834673 1 tensio
ten14 -1.26923076923 1 tensio
ten15 -1.27439724455 1 tensio
ten16 -1.2766934558 1 tensio
ten17 -1.27152698048 1 tensio
ten18 -1.27497129736 1 tensio
ten19 -1.26234213548 1 tensio
ten20 -1.24512055109 1 tensio
ten21 -1.18943742824 1 tensio
ten22 -0.969001148106 1 tensio
ten23 -0.812284730195 1 tensio
ten24 -0.756601607348 1 tensio
ten25 -0.733639494834 1 tensio
ten26 -0.722158438576 1 tensio
ten27 -0.721584385763 1 tensio
ten28 -0.730195177956 1 tensio
ten29 -0.746842709529 1 tensio
ten30 -0.764064293915 1 tensio
ten31 -0.778415614237 1 tensio
ten32 -0.790470723307 1 tensio
ten33 -0.804822043628 1 tensio
ten34 -0.819173363949 1 tensio
ten35 -0.814006888634 1 tensio
ten36 -0.818025258324 1 tensio
ten37 -0.834672789897 1 tensio
ten38 -0.849024110218 1 tensio
ten39 -0.861653272101 1 tensio
ten40 -0.87141216992 1 tensio
ten41 -0.878300803674 1 tensio
ten42 -0.896096440873 1 tensio
ten43 -0.91159586682 1 tensio
ten44 -0.925373134328 1 tensio
ten45 -0.936854190586 1 tensio
ten46 -0.951205510907 1 tensio
ten47 -0.958668197474 1 tensio
ten48 -0.965556831228 1 tensio
ten49 -0.974167623421 1 tensio
ten50 -0.981056257176 1 tensio
ten51 -0.988518943743 1 tensio
ten52 -0.994259471871 1 tensio
ten53 -1.0045924225 1 tensio
ten54 -1.01377726751 1 tensio
ten55 -1.00746268657 1 tensio
ten56 -1.0223880597 1 tensio
ten57 -1.02583237658 1 tensio
ten58 -1.02755453502 1 tensio
ten59 -1.03673938002 1 tensio
ten60 -1.04362801378 1 tensio
ten61 -1.05740528129 1 tensio
ten62 -1.05912743972 1 tensio
ten63 -1.05223880597 1 tensio
ten64 -1.06027554535 1 tensio
ten65 -1.0533869116 1 tensio
ten66 -1.05970149254 1 tensio
ten67 -1.06486796785 1 tensio
ten68 -1.07347876005 1 tensio
ten69 -1.08668197474 1 tensio
ten70 -1.09242250287 1 tensio
ten71 -1.09758897819 1 tensio
ten72 -1.09070034443 1 tensio
ten73 -1.10218140069 1 tensio
ten74 -1.09529276693 1 tensio
ten75 -1.09242250287 1 tensio
ten76 -1.09299655568 1 tensio
ten77 -1.09242250287 1 tensio
ten78 -1.09586681975 1 tensio
ten79 -1.09931113662 1 tensio
ten80 -1.10505166475 1 tensio
ten81 -1.107347876 1 tensio
ten82 -1.11308840413 1 tensio
ten83 -1.11653272101 1 tensio
ten84 -1.12112514351 1 tensio
ten85 -1.12973593571 1 tensio
ten86 -1.12342135476 1 tensio
ten87 -1.11194029851 1 tensio
ten88 -1.12399540758 1 tensio
ten89 -1.18140068886 1 tensio
ten90 -1.17451205511 1 tensio
ten91 -1.15097588978 1 tensio
ten92 -1.13719862227 1 tensio
ten93 -1.12629161883 1 tensio
ten94 -1.12399540758 1 tensio
ten95 -1.1159586682 1 tensio
ten96 -1.11079219288 1 tensio
* model command line
./run_model.sh
* model input/output
TO.IN.ptf TO.IN
pre_TO.IN.ptf pre_TO.IN
obsnode.pif alf_obsnode_60.txt
