Pcp_File_Version=3
      1
Welcome to HYDRUS-1D
 
   NOBB     MIT iWeight
     96      10       0
  lWatF  lChemF    NMat   lTempF
      t       f       1       f
  Model   Hysteresis
      0       0
    thr     ths    Alfa      n         Ks       l
      .0500000        .4300000        .017151       1.500          .5000000        .500
      0       0       0       0          0       0
      .0500000        .4300000        .017151       1.500          .5000000        .500
      .0500000        .4300000        .017151       1.500          .5000000        .500
      HO(N)         FOS   ITYPE(N) POS     WTS
           1         -146.440872560276     1     1        1
           15         -146.09644087256     1     1        1
           30         -145.866819747417     1     1        1
           45         -145.981630309989     1     1        1
           60         -145.694603903559     1     1        1
           75         -146.153846153846     1     1        1
           90         -146.039035591274     1     1        1
           105         -145.866819747417     1     1        1
           120         -146.211251435132     1     1        1
           135         -145.350172215844     1     1        1
           150         -145.40757749713     1     1        1
           165         -145.177956371986     1     1        1
           180         -145.235361653272     1     1        1
           195         -145.866819747417     1     1        1
           210         -145.235361653272     1     1        1
           225         -144.890929965557     1     1        1
           240         -144.948335246843     1     1        1
           255         -143.053960964409     1     1        1
           270         -140.413318025258     1     1        1
           285         -132.03214695752     1     1        1
           300         -106.027554535017     1     1        1
           315         -78.2433983926521     1     1        1
           330         -71.699196326062     1     1        1
           345         -71.1251435132032     1     1        1
           360         -71.239954075775     1     1        1
           375         -71.5269804822044     1     1        1
           390         -71.699196326062     1     1        1
           405         -73.0769230769231     1     1        1
           420         -76.6934557979334     1     1        1
           435         -78.8748564867968     1     1        1
           450         -80.8840413318025     1     1        1
           465         -82.8358208955224     1     1        1
           480         -84.6727898966705     1     1        1
           495         -86.3949483352468     1     1        1
           510         -88.2893226176808     1     1        1
           525         -89.609644087256     1     1        1
           540         -90.6429391504018     1     1        1
           555         -91.7336394948335     1     1        1
           570         -92.8243398392652     1     1        1
           585         -93.8002296211251     1     1        1
           600         -94.7761194029851     1     1        1
           615         -95.5223880597015     1     1        1
           630         -96.3260619977038     1     1        1
           645         -97.1297359357061     1     1        1
           660         -97.9908151549943     1     1        1
           675         -98.6222732491389     1     1        1
           690         -99.3685419058554     1     1        1
           705         -100.057405281286     1     1        1
           720         -100.688863375431     1     1        1
           735         -101.320321469575     1     1        1
           750         -102.009184845006     1     1        1
           765         -102.583237657865     1     1        1
           780         -103.099885189437     1     1        1
           795         -103.559127439724     1     1        1
           810         -103.960964408726     1     1        1
           825         -104.420206659013     1     1        1
           840         -104.994259471871     1     1        1
           855         -105.281285878301     1     1        1
           870         -105.625717566016     1     1        1
           885         -106.084959816303     1     1        1
           900         -106.371986222732     1     1        1
           915         -106.83122847302     1     1        1
           930         -107.233065442021     1     1        1
           945         -107.577497129736     1     1        1
           960         -107.807118254879     1     1        1
           975         -108.208955223881     1     1        1
           990         -108.553386911596     1     1        1
           1005         -108.840413318025     1     1        1
           1020         -109.127439724455     1     1        1
           1035         -109.242250287026     1     1        1
           1050         -109.701492537313     1     1        1
           1065         -110.045924225029     1     1        1
           1080         -110.218140068886     1     1        1
           1095         -110.505166475316     1     1        1
           1110         -110.734787600459     1     1        1
           1125         -110.964408725603     1     1        1
           1140         -111.308840413318     1     1        1
           1155         -111.42365097589     1     1        1
           1170         -111.710677382319     1     1        1
           1185         -112.055109070034     1     1        1
           1200         -112.284730195178     1     1        1
           1215         -112.514351320321     1     1        1
           1230         -112.801377726751     1     1        1
           1245         -113.030998851894     1     1        1
           1260         -113.145809414466     1     1        1
           1275         -113.547646383467     1     1        1
           1290         -113.719862227325     1     1        1
           1305         -113.777267508611     1     1        1
           1320         -113.949483352468     1     1        1
           1335         -114.293915040184     1     1        1
           1350         -114.466130884041     1     1        1
           1365         -114.695752009185     1     1        1
           1380         -114.810562571757     1     1        1
           1395         -115.0401836969     1     1        1
           1410         -115.729047072331     1     1        1
           1425         -115.384615384615     1     1        1
end
*** END OF INPUT FILE 'FIT.IN' **********************************
