pcf
* control data
restart estimation
7 96 1 0 1
3 1 double point 1 0 0
5 2 0.3 0.01 8
5 5 0.001
0.1
20 0.005 4 4 0.01 4
1 1 1
* parameter groups
soil relative 0.001 0 always_2 1 parabolic
* parameter data
pulse fixed relative   5.0000001E-02  0.01 0.1 soil 1 0 1
thetar fixed relative   5.0000001E-02  0.04 0.06 soil 1 0 1
thetas fixed relative   0.4300000      0.4 0.5 soil 1 0 1
alpha log relative   3.1449486E-02  0.01 0.1 soil 1 0 1
n fixed relative    1.500000      1.2 3 soil 1 0 1
ksat fixed relative   0.5000000      0.1 1 soil 1 0 1
l fixed relative   0.5000000      0.45 0.55 soil 1 0 1
* observation groups
tensio
* observation data
ten1 -146.440872560276 1 tensio
ten2 -146.09644087256 1 tensio
ten3 -145.866819747417 1 tensio
ten4 -145.981630309989 1 tensio
ten5 -145.694603903559 1 tensio
ten6 -146.153846153846 1 tensio
ten7 -146.039035591274 1 tensio
ten8 -145.866819747417 1 tensio
ten9 -146.211251435132 1 tensio
ten10 -145.350172215844 1 tensio
ten11 -145.40757749713 1 tensio
ten12 -145.177956371986 1 tensio
ten13 -145.235361653272 1 tensio
ten14 -145.866819747417 1 tensio
ten15 -145.235361653272 1 tensio
ten16 -144.890929965557 1 tensio
ten17 -144.948335246843 1 tensio
ten18 -143.053960964409 1 tensio
ten19 -140.413318025258 1 tensio
ten20 -132.03214695752 1 tensio
ten21 -106.027554535017 1 tensio
ten22 -78.2433983926521 1 tensio
ten23 -71.699196326062 1 tensio
ten24 -71.1251435132032 1 tensio
ten25 -71.239954075775 1 tensio
ten26 -71.5269804822044 1 tensio
ten27 -71.699196326062 1 tensio
ten28 -73.0769230769231 1 tensio
ten29 -76.6934557979334 1 tensio
ten30 -78.8748564867968 1 tensio
ten31 -80.8840413318025 1 tensio
ten32 -82.8358208955224 1 tensio
ten33 -84.6727898966705 1 tensio
ten34 -86.3949483352468 1 tensio
ten35 -88.2893226176808 1 tensio
ten36 -89.609644087256 1 tensio
ten37 -90.6429391504018 1 tensio
ten38 -91.7336394948335 1 tensio
ten39 -92.8243398392652 1 tensio
ten40 -93.8002296211251 1 tensio
ten41 -94.7761194029851 1 tensio
ten42 -95.5223880597015 1 tensio
ten43 -96.3260619977038 1 tensio
ten44 -97.1297359357061 1 tensio
ten45 -97.9908151549943 1 tensio
ten46 -98.6222732491389 1 tensio
ten47 -99.3685419058554 1 tensio
ten48 -100.057405281286 1 tensio
ten49 -100.688863375431 1 tensio
ten50 -101.320321469575 1 tensio
ten51 -102.009184845006 1 tensio
ten52 -102.583237657865 1 tensio
ten53 -103.099885189437 1 tensio
ten54 -103.559127439724 1 tensio
ten55 -103.960964408726 1 tensio
ten56 -104.420206659013 1 tensio
ten57 -104.994259471871 1 tensio
ten58 -105.281285878301 1 tensio
ten59 -105.625717566016 1 tensio
ten60 -106.084959816303 1 tensio
ten61 -106.371986222732 1 tensio
ten62 -106.83122847302 1 tensio
ten63 -107.233065442021 1 tensio
ten64 -107.577497129736 1 tensio
ten65 -107.807118254879 1 tensio
ten66 -108.208955223881 1 tensio
ten67 -108.553386911596 1 tensio
ten68 -108.840413318025 1 tensio
ten69 -109.127439724455 1 tensio
ten70 -109.242250287026 1 tensio
ten71 -109.701492537313 1 tensio
ten72 -110.045924225029 1 tensio
ten73 -110.218140068886 1 tensio
ten74 -110.505166475316 1 tensio
ten75 -110.734787600459 1 tensio
ten76 -110.964408725603 1 tensio
ten77 -111.308840413318 1 tensio
ten78 -111.42365097589 1 tensio
ten79 -111.710677382319 1 tensio
ten80 -112.055109070034 1 tensio
ten81 -112.284730195178 1 tensio
ten82 -112.514351320321 1 tensio
ten83 -112.801377726751 1 tensio
ten84 -113.030998851894 1 tensio
ten85 -113.145809414466 1 tensio
ten86 -113.547646383467 1 tensio
ten87 -113.719862227325 1 tensio
ten88 -113.777267508611 1 tensio
ten89 -113.949483352468 1 tensio
ten90 -114.293915040184 1 tensio
ten91 -114.466130884041 1 tensio
ten92 -114.695752009185 1 tensio
ten93 -114.810562571757 1 tensio
ten94 -115.0401836969 1 tensio
ten95 -115.729047072331 1 tensio
ten96 -115.384615384615 1 tensio
* model command line
run_model.bat
* model input/output
ATMOSPH.IN_TEMPLATE.ptf ATMOSPH.IN
FIT.IN_TEMPLATE.ptf FIT.IN
SELECTOR_TEMPLATE.IN.ptf SELECTOR.IN
FIT.OUT.pif FIT.OUT
