Pcp_File_Version=3
      1
Welcome to HYDRUS-1D
 
   NOBB     MIT iWeight
     96       1       0
  lWatF  lChemF    NMat   lTempF
      t       f       1       f
  Model   Hysteresis
      0       0
    thr     ths    Alfa       n         Ks       l
   0.05    0.43    0.03     1.5       0.01     0.5 
      0       0       0       0          0       0 
   0.05    0.43    0.03     1.5       0.01     0.5 
   0.05    0.43    0.03     1.5       0.01     0.5 
      HO(N)         FOS   ITYPE(N) POS     WTS
         0.6     -146.441     1     1        1 
          15     -146.096     1     1        1 
          30     -145.867     1     1        1 
          45     -145.982     1     1        1 
          60     -145.695     1     1        1 
          75     -146.154     1     1        1 
          90     -146.039     1     1        1 
         105     -145.867     1     1        1 
         120     -146.211     1     1        1 
         135      -145.35     1     1        1 
         150     -145.408     1     1        1 
         165     -145.178     1     1        1 
         180     -145.235     1     1        1 
         195     -145.867     1     1        1 
         210     -145.235     1     1        1 
         225     -144.891     1     1        1 
         240     -144.948     1     1        1 
         255     -143.054     1     1        1 
         270     -140.413     1     1        1 
         285     -132.032     1     1        1 
         300     -106.028     1     1        1 
         315     -78.2434     1     1        1 
         330     -71.6992     1     1        1 
         345     -71.1251     1     1        1 
         360       -71.24     1     1        1 
         375      -71.527     1     1        1 
         390     -71.6992     1     1        1 
         405     -73.0769     1     1        1 
         420     -76.6935     1     1        1 
         435     -78.8749     1     1        1 
         450      -80.884     1     1        1 
         465     -82.8358     1     1        1 
         480     -84.6728     1     1        1 
         495      -86.395     1     1        1 
         510     -88.2893     1     1        1 
         525     -89.6096     1     1        1 
         540     -90.6429     1     1        1 
         555     -91.7336     1     1        1 
         570     -92.8243     1     1        1 
         585     -93.8002     1     1        1 
         600     -94.7761     1     1        1 
         615     -95.5224     1     1        1 
         630     -96.3261     1     1        1 
         645     -97.1297     1     1        1 
         660     -97.9908     1     1        1 
         675     -98.6223     1     1        1 
         690     -99.3685     1     1        1 
         705     -100.057     1     1        1 
         720     -100.689     1     1        1 
         735      -101.32     1     1        1 
         750     -102.009     1     1        1 
         765     -102.583     1     1        1 
         780       -103.1     1     1        1 
         795     -103.559     1     1        1 
         810     -103.961     1     1        1 
         825      -104.42     1     1        1 
         840     -104.994     1     1        1 
         855     -105.281     1     1        1 
         870     -105.626     1     1        1 
         885     -106.085     1     1        1 
         900     -106.372     1     1        1 
         915     -106.831     1     1        1 
         930     -107.233     1     1        1 
         945     -107.577     1     1        1 
         960     -107.807     1     1        1 
         975     -108.209     1     1        1 
         990     -108.553     1     1        1 
        1005      -108.84     1     1        1 
        1020     -109.127     1     1        1 
        1035     -109.242     1     1        1 
        1050     -109.701     1     1        1 
        1065     -110.046     1     1        1 
        1080     -110.218     1     1        1 
        1095     -110.505     1     1        1 
        1110     -110.735     1     1        1 
        1125     -110.964     1     1        1 
        1140     -111.309     1     1        1 
        1155     -111.424     1     1        1 
        1170     -111.711     1     1        1 
        1185     -112.055     1     1        1 
        1200     -112.285     1     1        1 
        1215     -112.514     1     1        1 
        1230     -112.801     1     1        1 
        1245     -113.031     1     1        1 
        1260     -113.146     1     1        1 
        1275     -113.548     1     1        1 
        1290      -113.72     1     1        1 
        1305     -113.777     1     1        1 
        1320     -113.949     1     1        1 
        1335     -114.294     1     1        1 
        1350     -114.466     1     1        1 
        1365     -114.696     1     1        1 
        1380     -114.811     1     1        1 
        1395      -115.04     1     1        1 
        1410     -115.729     1     1        1 
        1425     -115.385     1     1        1 
end*** END OF INPUT FILE 'FIT.IN' **********************************
